Version 4
SHEET 1 880 756
WIRE 304 -48 256 -48
WIRE 368 -32 352 -32
WIRE 544 -32 368 -32
WIRE 304 -16 0 -16
WIRE 336 48 336 0
WIRE -160 80 -160 64
WIRE 0 80 0 64
WIRE 112 128 -32 128
WIRE 256 128 256 -48
WIRE 256 128 192 128
WIRE 320 128 256 128
WIRE 432 128 400 128
WIRE 544 128 544 -32
WIRE 544 128 496 128
WIRE 128 240 64 240
WIRE 176 240 128 240
WIRE 272 240 256 240
WIRE 288 240 272 240
WIRE 544 240 544 128
WIRE 544 240 368 240
WIRE 64 272 64 240
WIRE 544 272 544 240
WIRE 272 304 272 240
WIRE 272 304 192 304
WIRE 400 304 352 304
WIRE 128 336 128 240
WIRE 352 336 352 304
WIRE 192 352 192 304
WIRE 192 352 160 352
WIRE 400 352 400 304
WIRE -32 368 -32 128
WIRE 48 368 -32 368
WIRE 96 368 48 368
WIRE 544 368 544 352
WIRE 544 368 432 368
WIRE 192 384 160 384
WIRE 240 384 192 384
WIRE 336 384 320 384
WIRE 368 384 336 384
WIRE 544 384 544 368
WIRE 480 400 432 400
WIRE 48 480 48 368
WIRE 80 480 48 480
WIRE 192 480 192 384
WIRE 192 480 160 480
WIRE 544 496 544 464
WIRE 336 544 336 384
WIRE 480 544 480 400
WIRE 480 544 336 544
WIRE 48 576 48 480
WIRE 80 576 48 576
WIRE 192 576 192 480
WIRE 192 576 144 576
FLAG 0 80 0
FLAG 336 48 0
FLAG 544 496 0
FLAG 64 272 0
FLAG -160 80 0
FLAG -160 -16 Vcc
FLAG 352 336 0
FLAG 400 416 Vcc
FLAG 128 400 Vcc
FLAG 336 -64 Vcc
SYMBOL voltage 0 -32 R0
WINDOW 123 0 0 Left 2
WINDOW 39 0 0 Left 2
WINDOW 0 -36 -1 Left 2
SYMATTR InstName V1
SYMATTR Value 2.5
SYMBOL res 528 256 R0
SYMATTR InstName R3
SYMATTR Value 10K
SYMBOL res 528 368 R0
SYMATTR InstName R4
SYMATTR Value 100
SYMBOL cap 496 112 R90
WINDOW 0 0 32 VBottom 2
WINDOW 3 32 32 VTop 2
SYMATTR InstName C1
SYMATTR Value 0.01µF
SYMBOL res 416 112 R90
WINDOW 0 0 56 VBottom 2
WINDOW 3 32 56 VTop 2
SYMATTR InstName R5
SYMATTR Value 100
SYMBOL res 208 112 R90
WINDOW 0 -11 52 VBottom 2
WINDOW 3 32 56 VTop 2
SYMATTR InstName R6
SYMATTR Value 1K
SYMBOL res 176 464 R90
WINDOW 0 0 56 VBottom 2
WINDOW 3 32 56 VTop 2
SYMATTR InstName R8
SYMATTR Value 100K
SYMBOL cap 144 560 R90
WINDOW 0 0 32 VBottom 2
WINDOW 3 32 32 VTop 2
SYMATTR InstName C2
SYMATTR Value 3.9pF
SYMBOL res 272 224 R90
WINDOW 0 0 56 VBottom 2
WINDOW 3 32 56 VTop 2
SYMATTR InstName R9
SYMATTR Value 100K
SYMBOL res 384 224 R90
WINDOW 0 0 56 VBottom 2
WINDOW 3 32 56 VTop 2
SYMATTR InstName R10
SYMATTR Value 100K
SYMBOL res 336 368 R90
WINDOW 0 -13 58 VBottom 2
WINDOW 3 44 57 VTop 2
SYMATTR InstName R11
SYMATTR Value 100K
SYMBOL voltage -160 -32 R0
WINDOW 123 0 0 Left 2
WINDOW 39 0 0 Left 2
SYMATTR InstName V2
SYMATTR Value 15
SYMBOL Opamps\\LTC2052 336 -32 R0
WINDOW 3 39 35 Left 2
SYMATTR InstName U4
SYMBOL Opamps\\LTC2052 400 384 R180
WINDOW 3 -118 61 Left 2
SYMATTR InstName U1
SYMBOL Opamps\\LTC2052 128 368 R180
SYMATTR InstName U2
TEXT -96 600 Left 2 !.tran 0.1
